%
SOLVER= EULER
MATH_PROBLEM= DIRECT
RESTART_SOL= YES
%
MACH_NUMBER=0.6
AOA=1.25
FREESTREAM_PRESSURE=101325.15
FREESTREAM_TEMPERATURE=288.25
%
GAMMA_VALUE= 1.4
GAS_CONSTANT= 287.87
%
REF_ORIGIN_MOMENT_X = 0.25
REF_ORIGIN_MOMENT_Y = 0.00
REF_ORIGIN_MOMENT_Z = 0.00
REF_LENGTH= 1.0
REF_AREA= 1.0
REF_DIMENSIONALIZATION= FREESTREAM_PRESS_EQ_ONE
%
MARKER_EULER= ( airfoil )
MARKER_FAR= ( farfield )
%
MARKER_PLOTTING= ( airfoil )
MARKER_MONITORING= ( airfoil )
%
NUM_METHOD_GRAD= GREEN_GAUSS
CFL_NUMBER= 10.0
CFL_ADAPT= NO
CFL_ADAPT_PARAM= ( 1.5, 0.5, 1.0, 100.0 )
RK_ALPHA_COEFF= ( 0.66667, 0.66667, 1.000000 )
ITER= 3000
%
LINEAR_SOLVER= FGMRES
LINEAR_SOLVER_PREC= LU_SGS
LINEAR_SOLVER_ERROR= 1E-4
LINEAR_SOLVER_ITER= 2
%
MGLEVEL= 2
MGCYCLE= V_CYCLE
MG_PRE_SMOOTH= ( 1, 2, 3, 3 )
MG_POST_SMOOTH= ( 0, 0, 0, 0 )
MG_CORRECTION_SMOOTH= ( 0, 0, 0, 0 )
MG_DAMP_RESTRICTION= 1.0
MG_DAMP_PROLONGATION= 1.0
%
CONV_NUM_METHOD_FLOW= JST
JST_SENSOR_COEFF= ( 0.5, 0.02 )
TIME_DISCRE_FLOW= EULER_IMPLICIT
%
OBJECTIVE_FUNCTION= DRAG
CONV_NUM_METHOD_ADJFLOW= JST
ADJ_JST_SENSOR_COEFF= ( 0.0, 0.02 )
TIME_DISCRE_ADJFLOW= EULER_IMPLICIT
CFL_REDUCTION_ADJFLOW= 0.8
LIMIT_ADJFLOW= 1E6
%
GEO_MARKER= ( airfoil )
GEO_DESCRIPTION= AIRFOIL
GEO_MODE= FUNCTION
%
DV_KIND= FFD_SETTING
DV_MARKER= ( airfoil )
DV_PARAM= 1.0
DV_VALUE= 0.0
%
DEFORM_LINEAR_SOLVER_ITER= 500
DEFORM_NONLINEAR_ITER= 1
DEFORM_CONSOLE_OUTPUT= YES
DEFORM_LINEAR_SOLVER_ERROR= 1E-14
DEFORM_STIFFNESS_TYPE= INVERSE_VOLUME
%
CONV_RESIDUAL_MINVAL= -13
CONV_STARTITER= 10
CONV_CAUCHY_ELEMS= 100
CONV_CAUCHY_EPS= 1E-6
%
MESH_FILENAME= mesh_airfoil_0012.su2
MESH_FORMAT= SU2
MESH_OUT_FILENAME= mesh_out.su2
SOLUTION_FILENAME= solution_flow.dat
SOLUTION_ADJ_FILENAME= solution_adj.dat
TABULAR_FORMAT= CSV
CONV_FILENAME= history
RESTART_FILENAME= restart_flow.dat
RESTART_ADJ_FILENAME= restart_adj.dat
VOLUME_FILENAME= flow
VOLUME_ADJ_FILENAME= adjoint
GRAD_OBJFUNC_FILENAME= of_grad.dat
SURFACE_FILENAME= surface_flow
SURFACE_ADJ_FILENAME= surface_adjoint
SCREEN_OUTPUT= (INNER_ITER, RMS_DENSITY, RMS_ENERGY, LIFT, DRAG, MOMENT_Z, THICKNESS)
HISTORY_OUTPUT= (INNER_ITER, RMS_DENSITY, RMS_ENERGY, LIFT, DRAG, MOMENT_Z, THICKNESS, AOA)
OUTPUT_FILES = (RESTART, PARAVIEW, SURFACE_PARAVIEW, SURFACE_CSV)
%
OPT_OBJECTIVE= DRAG
OPT_CONSTRAINT= ( MOMENT_Z < 0.001571038008 ) * 0.001 ; ( AIRFOIL_THICKNESS > 0.120011 ) * 0.001
OPT_GRADIENT_FACTOR= 1E-6
OPT_RELAX_FACTOR= 1E3
OPT_ITERATIONS= 200
OPT_ACCURACY= 1E-10
OPT_BOUND_UPPER= 10000000000.0
OPT_BOUND_LOWER= -10000000000.0
DEFINITION_DV= ( 19, 1.0 | airfoil | BOX, 0, 0, 0.0, 1.0 ); ( 19, 1.0 | airfoil | BOX, 1, 0, 0.0, 1.0 ); ( 19, 1.0 | airfoil | BOX, 2, 0, 0.0, 1.0 ); ( 19, 1.0 | airfoil | BOX, 3, 0, 0.0, 1.0 ); ( 19, 1.0 | airfoil | BOX, 4, 0, 0.0, 1.0 ); ( 19, 1.0 | airfoil | BOX, 5, 0, 0.0, 1.0 ); ( 19, 1.0 | airfoil | BOX, 6, 0, 0.0, 1.0 ); ( 19, 1.0 | airfoil | BOX, 7, 0, 0.0, 1.0 ); ( 19, 1.0 | airfoil | BOX, 8, 0, 0.0, 1.0 ); ( 19, 1.0 | airfoil | BOX, 9, 0, 0.0, 1.0 ); ( 19, 1.0 | airfoil | BOX, 10, 0, 0.0, 1.0 ); ( 19, 1.0 | airfoil | BOX, 11, 0, 0.0, 1.0 ); ( 19, 1.0 | airfoil | BOX, 12, 0, 0.0, 1.0 ); ( 19, 1.0 | airfoil | BOX, 13, 0, 0.0, 1.0 ); ( 19, 1.0 | airfoil | BOX, 14, 0, 0.0, 1.0 ); ( 19, 1.0 | airfoil | BOX, 15, 0, 0.0, 1.0 ); ( 19, 1.0 | airfoil | BOX, 16, 0, 0.0, 1.0 ); ( 19, 1.0 | airfoil | BOX, 17, 0, 0.0, 1.0 ); ( 19, 1.0 | airfoil | BOX, 18, 0, 0.0, 1.0 ); ( 19, 1.0 | airfoil | BOX, 19, 0, 0.0, 1.0 ); ( 19, 1.0 | airfoil | BOX, 0, 1, 0.0, 1.0 ); ( 19, 1.0 | airfoil | BOX, 1, 1, 0.0, 1.0 ); ( 19, 1.0 | airfoil | BOX, 2, 1, 0.0, 1.0 ); ( 19, 1.0 | airfoil | BOX, 3, 1, 0.0, 1.0 ); ( 19, 1.0 | airfoil | BOX, 4, 1, 0.0, 1.0 ); ( 19, 1.0 | airfoil | BOX, 5, 1, 0.0, 1.0 ); ( 19, 1.0 | airfoil | BOX, 6, 1, 0.0, 1.0 ); ( 19, 1.0 | airfoil | BOX, 7, 1, 0.0, 1.0 ); ( 19, 1.0 | airfoil | BOX, 8, 1, 0.0, 1.0 ); ( 19, 1.0 | airfoil | BOX, 9, 1, 0.0, 1.0 ); ( 19, 1.0 | airfoil | BOX, 10, 1, 0.0, 1.0 ); ( 19, 1.0 | airfoil | BOX, 11, 1, 0.0, 1.0 ); ( 19, 1.0 | airfoil | BOX, 12, 1, 0.0, 1.0 ); ( 19, 1.0 | airfoil | BOX, 13, 1, 0.0, 1.0 ); ( 19, 1.0 | airfoil | BOX, 14, 1, 0.0, 1.0 ); ( 19, 1.0 | airfoil | BOX, 15, 1, 0.0, 1.0 ); ( 19, 1.0 | airfoil | BOX, 16, 1, 0.0, 1.0 ); ( 19, 1.0 | airfoil | BOX, 17, 1, 0.0, 1.0 ); ( 19, 1.0 | airfoil | BOX, 18, 1, 0.0, 1.0 ); ( 19, 1.0 | airfoil | BOX, 19, 1, 0.0, 1.0 )
%
%
%
% -------------------- FREE-FORM DEFORMATION PARAMETERS -----------------------%
FFD_TOLERANCE= 1E-10
FFD_ITERATIONS= 500
FFD_DEFINITION= (BOX, -0.05, -0.1, 0.0, 1.05, -0.1, 0.0, 1.05, 0.1, 0.0, -0.05, 0.1, 0.0, 0.0, 0.0, 0.0, 0.0, 0.0, 0.0, 0.0, 0.0 ,0.0, 0.0, 0.0 ,0.0)
FFD_CONTINUITY= 2ND_DERIVATIVE
FFD_DEGREE= (19, 1, 0)
